casefile/temp/WECC240_v03_Mod_NewMVA_month_4_day_6_hour_1_step1_addgen.raw
@!IC, SBASE,REV,XFRRAT,NXFRAT,BASFRQ
0,   100.00, 34,     0,     1, 60.00     / PSS(R)E-34.8    MON, MAR 21 2022  15:57
WECC 240 SYSTEM, V0.2,  MODIFIED BY NREL, INTERNAL USE ONLY
CONTACT: HAOYU.YUAN@NREL.GOV
GENERAL, THRSHZ=0.0001, PQBRAK=0.7, BLOWUP=5.0
GAUSS, ITMX=100, ACCP=1.6, ACCQ=1.6, ACCM=1.0, TOL=0.0001
NEWTON, ITMXN=300, ACCN=1.0, TOLN=0.1, VCTOLQ=0.1, VCTOLV=0.00001, DVLIM=0.99, NDVFCT=0.99
ADJUST, ADJTHR=0.005, ACCTAP=1.0, TAPLIM=0.05, SWVBND=100.0, MXTPSS=99, MXSWIM=10
TYSL, ITMXTY=20, ACCTY=1.0, TOLTY=0.00001
SOLVER, FNSL, ACTAPS=0, AREAIN=0, PHSHFT=0, DCTAPS=1, SWSHNT=1, FLATST=0, VARLIM=0, NONDIV=0
RATING, 1, "RATE1 ", "RATING SET 1                    "
RATING, 2, "RATE2 ", "RATING SET 2                    "
RATING, 3, "RATE3 ", "RATING SET 3                    "
RATING, 4, "RATE4 ", "RATING SET 4                    "
RATING, 5, "RATE5 ", "RATING SET 5                    "
RATING, 6, "RATE6 ", "RATING SET 6                    "
RATING, 7, "RATE7 ", "RATING SET 7                    "
RATING, 8, "RATE8 ", "RATING SET 8                    "
RATING, 9, "RATE9 ", "RATING SET 9                    "
RATING,10, "RATE10", "RATING SET 10                   "
RATING,11, "RATE11", "RATING SET 11                   "
RATING,12, "RATE12", "RATING SET 12                   "
0 / END OF SYSTEM-WIDE DATA, BEGIN BUS DATA
@!   I,'NAME        ', BASKV, IDE,AREA,ZONE,OWNER, VM,        VA,    NVHI,   NVLO,   EVHI,   EVLO
  1001,'FOURCORN    ', 500.0000,1,   1,   3,   1,1.14618,  15.0473,1.10000,0.90000,1.10000,0.90000
  1002,'FOURCORN    ', 345.0000,1,   1,   3,   1,1.16268,  18.2632,1.10000,0.90000,1.10000,0.90000
  1003,'FOURCORN    ', 230.0000,2,   1,  10,   1,1.00000,  16.8710,1.10000,0.90000,1.10000,0.90000
  1004,'SAN JUAN    ', 345.0000,2,   1,  10,   1,1.00000,  23.4892,1.10000,0.90000,1.10000,0.90000
  1032,'FCNGN4CC    ',  20.0000,2,   1,  10,   1,1.16345,  18.3746,1.10000,0.90000,1.10000,0.90000
  1034,'SJUAN G4    ',  20.0000,2,   1,  10,   1,1.21842,  23.9661,1.10000,0.90000,1.10000,0.90000
  1101,'CORONADO    ', 500.0000,2,   1,   3,   1,1.00000,   7.8304,1.10000,0.90000,1.10000,0.90000
  1102,'CHOLLA      ', 345.0000,2,   1,   3,   1,1.00000,  13.8579,1.10000,0.90000,1.10000,0.90000
  1131,'CORONADO    ',  20.0000,2,   1,   3,   1,0.96634,   8.1480,1.10000,0.90000,1.10000,0.90000
  1201,'MOENKOPI    ', 500.0000,2,   1,   3,   1,1.00000,  -3.6162,1.10000,0.90000,1.10000,0.90000
  1202,'NAVAJO      ', 500.0000,2,   1,   3,   1,1.00000,  -0.4939,1.10000,0.90000,1.10000,0.90000
  1232,'NAVAJO 2    ',  20.0000,3,   1,   3,   1,1.08000,   0.0000,1.10000,0.90000,1.10000,0.90000
  1301,'MEAD        ', 500.0000,2,   1,   3,   1,1.00000, -10.4345,1.10000,0.90000,1.10000,0.90000
  1302,'H ALLEN     ', 500.0000,2,   1,   9,   1,1.00000,  -5.3275,1.10000,0.90000,1.10000,0.90000
  1303,'H ALLEN     ', 345.0000,1,   1,   9,   1,1.00500,  -4.6535,1.10000,0.90000,1.10000,0.90000
  1331,'HOOVER      ',  20.0000,2,   1,   3,   1,1.12732, -10.2122,1.10000,0.90000,1.10000,0.90000
  1333,'H ALLEN     ',  20.0000,2,   1,   9,   1,1.00309,  -4.0867,1.10000,0.90000,1.10000,0.90000
  1401,'PALOVRDE    ', 500.0000,2,   1,   3,   1,1.00000,  -3.3514,1.10000,0.90000,1.10000,0.90000
  1402,'WESTWING    ', 500.0000,2,   1,   3,   1,1.00000,  -7.5219,1.10000,0.90000,1.10000,0.90000
  1403,'PARKER      ', 230.0000,2,   1,   3,   1,1.00000,  -5.3628,1.10000,0.90000,1.10000,0.90000
  1431,'PALOVRD2    ',  20.0000,2,   1,   3,   1,0.78927,  -2.1467,1.10000,0.90000,1.10000,0.90000
  2000,'MEXICO      ', 230.0000,2,   4,   7,   1,1.00000, -15.1450,1.10000,0.90000,1.10000,0.90000
  2030,'MEXICO      ',  20.0000,2,   4,   7,   1,0.50618, -14.7380,1.10000,0.90000,1.10000,0.90000
  2100,'IMPERIAL    ', 230.0000,2,   2,   2,   1,1.00000, -11.5509,1.10000,0.90000,1.10000,0.90000
  2130,'IMPERIAL    ',  20.0000,2,   2,   2,   1,1.07311, -11.4725,1.10000,0.90000,1.10000,0.90000
  2201,'MIGUEL      ', 500.0000,2,   2,   2,   1,1.00000, -11.0775,1.10000,0.90000,1.10000,0.90000
  2202,'MIGUEL      ', 230.0000,1,   2,   2,   1,1.03515, -10.5980,1.10000,0.90000,1.10000,0.90000
  2203,'MISSION     ', 230.0000,2,   2,   2,   1,1.00000,  -7.6035,1.10000,0.90000,1.10000,0.90000
  2233,'MISSION     ',  20.0000,2,   2,   2,   1,1.10994,  -7.6035,1.10000,0.90000,1.10000,0.90000
  2301,'IMPRLVLY    ', 500.0000,2,   2,   2,   1,1.00000, -12.5584,1.10000,0.90000,1.10000,0.90000
  2302,'IMPRLVLY    ', 230.0000,1,   2,   2,   1,0.90630, -12.3960,1.10000,0.90000,1.10000,0.90000
  2332,'IMPRLVLY    ',  20.0000,2,   2,   2,   1,0.90630, -12.3960,1.10000,0.90000,1.10000,0.90000
  2400,'DEVERS      ', 500.0000,2,   2,   2,   1,1.00000, -12.1526,1.10000,0.90000,1.10000,0.90000
  2401,'LUGO        ', 500.0000,2,   2,   2,   1,1.00000,  -7.8270,1.10000,0.90000,1.10000,0.90000
  2402,'MIRALOMA    ', 500.0000,2,   2,   2,   1,1.00000,  -4.9375,1.10000,0.90000,1.10000,0.90000
  2403,'VALLEY      ', 500.0000,2,   2,   2,   1,1.00000,  -9.6169,1.10000,0.90000,1.10000,0.90000
  2404,'VINCENT     ', 500.0000,2,   2,   2,   1,1.00000, -13.1804,1.10000,0.90000,1.10000,0.90000
  2405,'SYLMAR S    ', 230.0000,2,   2,   2,   1,1.00000,   0.8872,1.10000,0.90000,1.10000,0.90000
  2406,'EAGLROCK    ', 230.0000,2,   2,   2,   1,1.00000,   1.7832,1.10000,0.90000,1.10000,0.90000
  2407,'LITEHIPE    ', 230.0000,2,   2,   2,   1,1.00000,  -0.2890,1.10000,0.90000,1.10000,0.90000
  2408,'MESA CAL    ', 230.0000,2,   2,   2,   1,1.00000,  -1.3908,1.10000,0.90000,1.10000,0.90000
  2409,'MIRALOMA    ', 230.0000,1,   2,   2,   1,1.27077,  -3.1396,1.10000,0.90000,1.10000,0.90000
  2410,'PARDEE      ', 230.0000,2,   2,   2,   1,1.00000,   2.3978,1.10000,0.90000,1.10000,0.90000
  2411,'VINCENT     ', 230.0000,1,   2,   2,   1,1.10233,  -6.3950,1.10000,0.90000,1.10000,0.90000
  2431,'LUGO        ',  20.0000,2,   2,   2,   1,1.20982,  -7.8270,1.10000,0.90000,1.10000,0.90000
  2434,'VINCENT     ',  20.0000,2,   2,   2,   1,1.10233,  -6.3950,1.10000,0.90000,1.10000,0.90000
  2438,'MESA CAL    ',  20.0000,2,   2,   2,   1,1.51100,  -1.4366,1.10000,0.90000,1.10000,0.90000
  2439,'MIRALOMA    ',  20.0000,2,   2,   2,   1,1.27077,  -3.1396,1.10000,0.90000,1.10000,0.90000
  2501,'SERRANO     ', 500.0000,2,   2,   2,   1,1.00000,  -5.2263,1.10000,0.90000,1.10000,0.90000
  2502,'SERRANO     ', 230.0000,1,   2,   2,   1,1.24811,  -4.3165,1.10000,0.90000,1.10000,0.90000
  2503,'S.ONOFRE    ', 230.0000,2,   2,   2,   1,1.00000,  -4.8733,1.10000,0.90000,1.10000,0.90000
  2533,'S.ONOFRE    ',  20.0000,2,   2,   2,   1,1.17328,  -4.8733,1.10000,0.90000,1.10000,0.90000
  2600,'ADELANTO    ', 500.0000,2,   2,   2,   1,1.00000,  -9.1700,1.10000,0.90000,1.10000,0.90000
  2601,'RINALDI     ', 500.0000,2,   2,   2,   1,1.00000,  -5.7031,1.10000,0.90000,1.10000,0.90000
  2602,'STA E       ', 500.0000,2,   2,   2,   1,1.00000,  -1.5571,1.10000,0.90000,1.10000,0.90000
  2603,'VICTORVL    ', 500.0000,2,   2,   2,   1,1.00000,  -9.3113,1.10000,0.90000,1.10000,0.90000
  2604,'INTERMT     ', 345.0000,2,   2,   2,   1,1.00000,  15.6750,1.10000,0.90000,1.10000,0.90000
  2605,'STA B1      ', 287.0000,1,   2,   2,   1,1.32517,   1.4067,1.10000,0.90000,1.10000,0.90000
  2606,'STA B2      ', 287.0000,1,   2,   2,   1,1.32517,   1.4067,1.10000,0.90000,1.10000,0.90000
  2607,'VICTORVL    ', 287.0000,1,   2,   2,   1,1.29624,  -5.6360,1.10000,0.90000,1.10000,0.90000
  2608,'CASTAIC     ', 230.0000,2,   2,   2,   1,1.00000,   0.4462,1.10000,0.90000,1.10000,0.90000
  2609,'GLENDAL     ', 230.0000,2,   2,   2,   1,1.00000,   2.5774,1.10000,0.90000,1.10000,0.90000
  2610,'HAYNES      ', 230.0000,2,   2,   2,   1,1.00000,   3.8528,1.10000,0.90000,1.10000,0.90000
  2611,'OLIVE       ', 230.0000,2,   2,   2,   1,1.00000,   0.6908,1.10000,0.90000,1.10000,0.90000
  2612,'RINALDI     ', 230.0000,1,   2,   2,   1,1.30781,   0.5359,1.10000,0.90000,1.10000,0.90000
  2613,'RIVER       ', 230.0000,2,   2,   2,   1,1.00000,   3.6573,1.10000,0.90000,1.10000,0.90000
  2614,'STA BLD     ', 230.0000,1,   2,   2,   1,1.32328,   3.4372,1.10000,0.90000,1.10000,0.90000
  2615,'STA E       ', 230.0000,1,   2,   2,   1,1.31453,   1.7057,1.10000,0.90000,1.10000,0.90000
  2616,'STA F       ', 230.0000,1,   2,   2,   1,1.32223,   3.5728,1.10000,0.90000,1.10000,0.90000
  2617,'STA G       ', 230.0000,1,   2,   2,   1,1.31920,   2.9125,1.10000,0.90000,1.10000,0.90000
  2618,'STA J       ', 230.0000,1,   2,   2,   1,1.30775,   1.4123,1.10000,0.90000,1.10000,0.90000
  2619,'SYLMARLA    ', 230.0000,1,   2,   2,   1,1.30518,   0.2097,1.10000,0.90000,1.10000,0.90000
  2620,'VALLEY      ', 230.0000,1,   2,   2,   1,1.31052,   1.2758,1.10000,0.90000,1.10000,0.90000
  2621,'STA B       ', 138.0000,1,   2,   2,   1,1.32406,   2.8595,1.10000,0.90000,1.10000,0.90000
  2630,'HAYNES3G    ',  20.0000,2,   2,   2,   1,1.32345,   3.8528,1.10000,0.90000,1.10000,0.90000
  2631,'OLIVE       ',  20.0000,2,   2,   2,   1,1.30804,   0.6908,1.10000,0.90000,1.10000,0.90000
  2634,'INTERM1G    ',  20.0000,2,   2,   2,   1,1.00601,  15.7660,1.10000,0.90000,1.10000,0.90000
  2637,'OWENS G     ',  20.0000,2,   2,   2,   1,1.30786,   0.5296,1.10000,0.90000,1.10000,0.90000
  2638,'CASTAI4G    ',  20.0000,2,   2,   2,   1,1.30745,   0.4143,1.10000,0.90000,1.10000,0.90000
  2901,'ELDORADO    ', 500.0000,2,   2,   2,   1,1.00000, -12.2530,1.10000,0.90000,1.10000,0.90000
  2902,'MOHAVE      ', 500.0000,2,   2,   2,   1,1.00000, -11.9352,1.10000,0.90000,1.10000,0.90000
  3101,'EMBRCDRD    ', 230.0000,2,   2,   2,   1,1.00000, -20.4175,1.10000,0.90000,1.10000,0.90000
  3102,'MARTIN      ', 230.0000,2,   2,   2,   1,1.00000, -19.7646,1.10000,0.90000,1.10000,0.90000
  3103,'SANMATEO    ', 230.0000,2,   2,   2,   1,1.00000, -18.1262,1.10000,0.90000,1.10000,0.90000
  3104,'MARTIN      ', 115.0000,1,   2,   2,   1,1.07736, -23.2523,1.10000,0.90000,1.10000,0.90000
  3105,'POTRERO     ', 115.0000,2,   2,   2,   1,1.00000, -24.2736,1.10000,0.90000,1.10000,0.90000
  3133,'SANMATEO    ',  20.0000,2,   2,   2,   1,0.99608, -18.1262,1.10000,0.90000,1.10000,0.90000
  3135,'POTRERO     ',  20.0000,2,   2,   2,   1,1.14642, -24.2557,1.10000,0.90000,1.10000,0.90000
  3201,'C.COSTA     ', 230.0000,2,   2,   2,   1,1.00000, -15.3837,1.10000,0.90000,1.10000,0.90000
  3202,'MORAGA      ', 230.0000,2,   2,   2,   1,1.00000, -15.5764,1.10000,0.90000,1.10000,0.90000
  3203,'NEWARK      ', 230.0000,2,   2,   2,   1,1.00000, -16.8252,1.10000,0.90000,1.10000,0.90000
  3204,'PITSBURG    ', 230.0000,2,   2,   2,   1,1.00000, -15.1712,1.10000,0.90000,1.10000,0.90000
  3205,'SOBRANTE    ', 230.0000,2,   2,   2,   1,1.00000, -13.9027,1.10000,0.90000,1.10000,0.90000
  3234,'PITSBURG    ',  20.0000,2,   2,   2,   1,1.01650, -14.8520,1.10000,0.90000,1.10000,0.90000
  3301,'METCALF     ', 500.0000,2,   2,   2,   1,1.00000, -18.7724,1.10000,0.90000,1.10000,0.90000
  3302,'JEFFERSN    ', 230.0000,2,   2,   2,   1,1.00000, -21.0104,1.10000,0.90000,1.10000,0.90000
  3303,'METCALF     ', 230.0000,1,   2,   2,   1,0.95115, -20.2515,1.10000,0.90000,1.10000,0.90000
  3304,'MONTAVIS    ', 230.0000,1,   2,   2,   1,0.96291, -20.9502,1.10000,0.90000,1.10000,0.90000
  3305,'RAVENSWD    ', 230.0000,2,   2,   2,   1,1.00000, -17.7504,1.10000,0.90000,1.10000,0.90000
  3333,'METCALF     ',  20.0000,2,   2,   2,   1,0.95115, -20.2515,1.10000,0.90000,1.10000,0.90000
  3401,'GREGG       ', 230.0000,2,   2,   2,   1,1.00000, -26.3510,1.10000,0.90000,1.10000,0.90000
  3402,'HELMS PP    ', 230.0000,2,   2,   2,   1,1.00000, -26.3641,1.10000,0.90000,1.10000,0.90000
  3403,'MC CALL     ', 230.0000,2,   2,   2,   1,1.00000, -24.8755,1.10000,0.90000,1.10000,0.90000
  3404,'PANOCHE     ', 230.0000,2,   2,   2,   1,1.00000, -25.7998,1.10000,0.90000,1.10000,0.90000
  3405,'WILSON      ', 230.0000,2,   2,   2,   1,1.00000, -25.7860,1.10000,0.90000,1.10000,0.90000
  3432,'HELMS PP    ',  20.0000,2,   2,   2,   1,0.87263, -26.3641,1.10000,0.90000,1.10000,0.90000
  3433,'MC CALL     ',  20.0000,2,   2,   2,   1,0.85181, -24.8755,1.10000,0.90000,1.10000,0.90000
  3501,'FULTON      ', 230.0000,2,   2,   2,   1,1.00000,   7.3241,1.10000,0.90000,1.10000,0.90000
  3531,'FULTON      ',  20.0000,2,   2,   2,   1,1.00197,   7.8740,1.10000,0.90000,1.10000,0.90000
  3601,'HUMBOLDT    ', 115.0000,2,   2,   2,   1,1.00000,   0.3281,1.10000,0.90000,1.10000,0.90000
  3631,'HUMBOLDT    ',  20.0000,2,   2,   2,   1,1.04896,   0.3521,1.10000,0.90000,1.10000,0.90000
  3701,'SUMMIT      ', 115.0000,2,   1,   9,   1,1.00000,  -4.2782,1.10000,0.90000,1.10000,0.90000
  3731,'SUMMIT      ',  20.0000,2,   1,   9,   1,1.08025,  -4.2523,1.10000,0.90000,1.10000,0.90000
  3801,'DIABLO      ', 500.0000,2,   2,   2,   1,1.00000, -29.3351,1.10000,0.90000,1.10000,0.90000
  3802,'GATES       ', 500.0000,2,   2,   2,   1,1.00000, -26.3208,1.10000,0.90000,1.10000,0.90000
  3803,'MIDWAY      ', 500.0000,2,   2,   2,   1,1.00000, -21.9311,1.10000,0.90000,1.10000,0.90000
  3804,'GATES       ', 230.0000,1,   2,   2,   1,0.82832, -25.4096,1.10000,0.90000,1.10000,0.90000
  3805,'MIDWAY      ', 230.0000,1,   2,   2,   1,0.83929, -19.7440,1.10000,0.90000,1.10000,0.90000
  3806,'MORROBAY    ', 230.0000,2,   2,   2,   1,1.00000, -21.2331,1.10000,0.90000,1.10000,0.90000
  3831,'DIABLO1     ',  20.0000,2,   2,   2,   1,0.01717, -16.8919,1.10000,0.90000,1.10000,0.90000
  3835,'MIDWAY      ',  20.0000,2,   2,   2,   1,0.83929, -19.7440,1.10000,0.90000,1.10000,0.90000
  3836,'MORROBAY    ',  20.0000,2,   2,   2,   1,0.84078, -21.2331,1.10000,0.90000,1.10000,0.90000
  3891,'GATES1      ', 500.0000,2,   2,   2,   1,1.00000, -10.9492,1.10000,0.90000,1.10000,0.90000
  3892,'MIDWAY1     ', 500.0000,1,   2,   2,   1,0.55433, -30.2115,1.10000,0.90000,1.10000,0.90000
  3893,'MIDWAY2     ', 500.0000,1,   2,   2,   1,1.19103,  -5.3457,1.10000,0.90000,1.10000,0.90000
  3894,'MIDWAY3     ', 500.0000,1,   2,   2,   1,0.54795, -30.2805,1.10000,0.90000,1.10000,0.90000
  3895,'MIDWAY4     ', 500.0000,1,   2,   2,   1,1.19322,  -5.3261,1.10000,0.90000,1.10000,0.90000
  3896,'MIDWAY5     ', 500.0000,1,   2,   2,   1,0.53189, -30.1888,1.10000,0.90000,1.10000,0.90000
  3897,'MIDWAY6     ', 500.0000,1,   2,   2,   1,1.18681,  -5.6393,1.10000,0.90000,1.10000,0.90000
  3901,'LOSBANOS    ', 500.0000,2,   2,   2,   1,1.00000, -25.8723,1.10000,0.90000,1.10000,0.90000
  3902,'MOSSLAND    ', 500.0000,2,   2,   2,   1,1.00000, -23.4037,1.10000,0.90000,1.10000,0.90000
  3903,'TESLA       ', 500.0000,2,   2,   2,   1,1.00000, -12.5264,1.10000,0.90000,1.10000,0.90000
  3904,'VACA-DIX    ', 500.0000,2,   2,   2,   1,1.00000, -10.8972,1.10000,0.90000,1.10000,0.90000
  3905,'TABLE MT    ', 500.0000,2,   2,   2,   1,1.00000,  -2.8117,1.10000,0.90000,1.10000,0.90000
  3906,'ROUND MT    ', 500.0000,2,   2,   2,   1,1.00000,   3.4027,1.10000,0.90000,1.10000,0.90000
  3907,'BELLOTA     ', 230.0000,2,   2,   2,   1,1.00000, -22.7715,1.10000,0.90000,1.10000,0.90000
  3908,'BRIGHTON    ', 230.0000,2,   2,   2,   1,1.00000, -18.4211,1.10000,0.90000,1.10000,0.90000
  3909,'COLGATE     ', 230.0000,2,   2,   2,   1,1.00000, -12.2339,1.10000,0.90000,1.10000,0.90000
  3910,'CORTINA     ', 230.0000,2,   2,   2,   1,1.00000, -12.6691,1.10000,0.90000,1.10000,0.90000
  3911,'COTWDPGE    ', 230.0000,2,   2,   2,   1,1.00000,  -0.0682,1.10000,0.90000,1.10000,0.90000
  3912,'GLENN       ', 230.0000,2,   2,   2,   1,1.00000,  -7.0578,1.10000,0.90000,1.10000,0.90000
  3913,'GOLDHILL    ', 230.0000,2,   2,   2,   1,1.00000, -14.4005,1.10000,0.90000,1.10000,0.90000
  3914,'IGNACIO     ', 230.0000,2,   2,   2,   1,1.00000,  -4.4209,1.10000,0.90000,1.10000,0.90000
  3915,'LAKEVILE    ', 230.0000,2,   2,   2,   1,1.00000,  -7.5476,1.10000,0.90000,1.10000,0.90000
  3916,'LOGAN CR    ', 230.0000,2,   2,   2,   1,1.00000,  -8.2475,1.10000,0.90000,1.10000,0.90000
  3917,'LOSBANOS    ', 230.0000,1,   2,   2,   1,0.87670, -25.5941,1.10000,0.90000,1.10000,0.90000
  3918,'MOSSLAND    ', 230.0000,1,   2,   2,   1,0.92139, -23.7338,1.10000,0.90000,1.10000,0.90000
  3919,'PALERMO     ', 230.0000,2,   2,   2,   1,1.00000, -10.8857,1.10000,0.90000,1.10000,0.90000
  3920,'RIO OSO     ', 230.0000,2,   2,   2,   1,1.00000, -12.2721,1.10000,0.90000,1.10000,0.90000
  3921,'ROUND MT    ', 230.0000,1,   2,   2,   1,1.07000,   7.5535,1.10000,0.90000,1.10000,0.90000
  3922,'TABLE MT    ', 230.0000,1,   2,   2,   1,0.98419,  -8.1344,1.10000,0.90000,1.10000,0.90000
  3923,'TESLA       ', 230.0000,2,   2,   2,   1,0.87597, -13.3579,1.10000,0.90000,1.10000,0.90000
  3924,'VACA-DIX    ', 230.0000,1,   2,   2,   1,0.96397, -13.4730,1.10000,0.90000,1.10000,0.90000
  3925,'COTWDPGE    ', 115.0000,1,   2,   2,   1,1.04876,   0.1317,1.10000,0.90000,1.10000,0.90000
  3926,'RIO OSO     ', 115.0000,1,   2,   2,   1,1.02103,  -8.3868,1.10000,0.90000,1.10000,0.90000
  3931,'ROUND MT    ',  20.0000,2,   2,   2,   1,1.07063,   7.8576,1.10000,0.90000,1.10000,0.90000
  3932,'MOSSLAND    ',  20.0000,2,   2,   2,   1,0.90858, -23.4037,1.10000,0.90000,1.10000,0.90000
  3933,'TESLA       ',  20.0000,2,   2,   2,   1,0.85969, -12.8174,1.10000,0.90000,1.10000,0.90000
  4001,'MALIN       ', 500.0000,2,   3,  11,   1,1.00000,   6.8219,1.10000,0.90000,1.10000,0.90000
  4002,'SUMMER L    ', 500.0000,2,   3,  11,   1,1.00000,  14.0204,1.10000,0.90000,1.10000,0.90000
  4003,'BURNS       ', 500.0000,2,   3,  11,   1,1.00000,  22.3482,1.10000,0.90000,1.10000,0.90000
  4004,'GRIZZLY     ', 500.0000,2,   3,  11,   1,1.00000,  16.3998,1.10000,0.90000,1.10000,0.90000
  4005,'JOHN DAY    ', 500.0000,2,   3,  11,   1,1.00000,  25.6465,1.10000,0.90000,1.10000,0.90000
  4006,'BIG EDDY    ', 500.0000,2,   3,  11,   1,1.00000,  24.2671,1.10000,0.90000,1.10000,0.90000
  4007,'CELILOCA    ', 500.0000,2,   3,  11,   1,1.00000,  24.2258,1.10000,0.90000,1.10000,0.90000
  4008,'MALIN       ', 345.0000,1,   3,  11,   1,1.09396,   6.0942,1.10000,0.90000,1.10000,0.90000
  4009,'BIG EDDY    ', 230.0000,1,   3,  11,   1,1.08000,  23.8828,1.10000,0.90000,1.10000,0.90000
  4010,'CELILO      ', 230.0000,1,   3,  11,   1,1.07961,  23.6181,1.10000,0.90000,1.10000,0.90000
  4031,'MALIN       ',  20.0000,2,   3,  11,   1,1.07674,   7.0100,1.10000,0.90000,1.10000,0.90000
  4035,'JOHN DAY    ',  20.0000,2,   3,  11,   1,1.07294,  26.4087,1.10000,0.90000,1.10000,0.90000
  4039,'DALLES21    ',  20.0000,2,   3,  13,   1,1.07729,  24.3635,1.10000,0.90000,1.10000,0.90000
  4090,'MALIN1      ', 500.0000,1,   3,  11,   1,1.10272,  12.9850,1.10000,0.90000,1.10000,0.90000
  4091,'GRIZZLY1    ', 500.0000,1,   3,  11,   1,1.10109,  15.3876,1.10000,0.90000,1.10000,0.90000
  4092,'GRIZZLY2    ', 500.0000,1,   3,  11,   1,1.08838,   9.1854,1.10000,0.90000,1.10000,0.90000
  4093,'GRIZZLY3    ', 500.0000,1,   3,  11,   1,1.08947,   8.2590,1.10000,0.90000,1.10000,0.90000
  4094,'GRIZZLY4    ', 500.0000,1,   3,  11,   1,1.08846,  15.4054,1.10000,0.90000,1.10000,0.90000
  4095,'GRIZZLY5    ', 500.0000,1,   3,  11,   1,1.08787,   8.7797,1.10000,0.90000,1.10000,0.90000
  4096,'GRIZZLY6    ', 500.0000,1,   3,  11,   1,1.08908,   7.8016,1.10000,0.90000,1.10000,0.90000
  4097,'GRIZZLY7    ', 500.0000,1,   3,  11,   1,1.08792,  15.3516,1.10000,0.90000,1.10000,0.90000
  4101,'COULEE      ', 500.0000,2,   3,  13,   1,1.00000,  39.0320,1.10000,0.90000,1.10000,0.90000
  4102,'HANFORD     ', 500.0000,2,   3,  13,   1,1.00000,  32.2268,1.10000,0.90000,1.10000,0.90000
  4103,'BELL        ', 500.0000,2,   3,  13,   1,1.00000,  31.3402,1.10000,0.90000,1.10000,0.90000
  4104,'BELL        ', 230.0000,1,   3,  13,   1,1.12775,  25.2528,1.10000,0.90000,1.10000,0.90000
  4131,'COULEE      ',  20.0000,2,   3,  13,   1,1.12643,  40.1565,1.10000,0.90000,1.10000,0.90000
  4132,'HANFORD     ',  20.0000,2,   3,  13,   1,1.09138,  32.8336,1.10000,0.90000,1.10000,0.90000
  4201,'NORTH       ', 500.0000,2,   3,  13,   1,1.00000,  35.5923,1.10000,0.90000,1.10000,0.90000
  4202,'WCASCADE    ', 500.0000,2,   3,  13,   1,1.00000,  22.1706,1.10000,0.90000,1.10000,0.90000
  4203,'WILLAMET    ', 500.0000,2,   3,  13,   1,1.00000,  18.1140,1.10000,0.90000,1.10000,0.90000
  4204,'MERIDIAN    ', 500.0000,2,   3,  13,   1,1.00000,   7.9776,1.10000,0.90000,1.10000,0.90000
  4231,'NORTH G3    ',  20.0000,2,   3,  13,   1,1.12384,  36.1201,1.10000,0.90000,1.10000,0.90000
  4232,'WCASCADE    ',  20.0000,2,   3,  13,   1,1.07051,  22.2027,1.10000,0.90000,1.10000,0.90000
  5001,'CANADA      ', 500.0000,2,   3,   4,   1,1.00000,  59.4784,1.10000,0.90000,1.10000,0.90000
  5002,'CANALB      ', 500.0000,2,   3,   1,   1,1.00000,  69.3612,1.10000,0.90000,1.10000,0.90000
  5003,'CA230TO     ', 230.0000,2,   3,   1,   1,1.00000,  64.6898,1.10000,0.90000,1.10000,0.90000
  5004,'CA230       ', 230.0000,2,   3,   4,   1,1.00000,  44.2333,1.10000,0.90000,1.10000,0.90000
  5031,'CANAD G1    ',  20.0000,2,   3,   4,   1,1.04895,  60.8724,1.10000,0.90000,1.10000,0.90000
  5032,'CMAIN GM    ',  20.0000,2,   3,   1,   1,1.04725,  71.8383,1.10000,0.90000,1.10000,0.90000
  6101,'MIDPOINT    ', 500.0000,2,   3,   6,   1,1.00000,  32.5473,1.10000,0.90000,1.10000,0.90000
  6102,'MIDPOINT    ', 345.0000,1,   3,   6,   1,1.04609,  35.4072,1.10000,0.90000,1.10000,0.90000
  6103,'BORAH       ', 345.0000,2,   3,   6,   1,1.00000,  34.9353,1.10000,0.90000,1.10000,0.90000
...
0 / END OF BUS DATA, BEGIN LOAD DATA
@!   I,'ID',STAT,AREA,ZONE,      PL,        QL,        IP,        IQ,        YP,        YQ, OWNER,SCALE,INTRPT,  DGENP,     DGENQ, DGENF
  1002,'1 ',   1,   1,   3,    79.346,   206.973,     0.000,     0.000,     0.000,     0.000,   1,    1,  0,     0.000,     0.000,   0
  1003,'1 ',   1,   1,  10,   784.790,  -137.387,     0.000,     0.000,     0.000,     0.000,   1,    1,  0,     0.000,     0.000,   0
  1004,'1 ',   1,   1,  10,   357.418,    -1.846,     0.000,     0.000,     0.000,     0.000,   1,    1,  0,     0.000,     0.000,   0
  1101,'1 ',   1,   1,   3,  1589.872,    47.649,     0.000,     0.000,     0.000,     0.000,   1,    1,  0,     0.000,     0.000,   0
  1102,'1 ',   1,   1,   3,    63.798,    -8.479,     0.000,     0.000,     0.000,     0.000,   1,    1,  0,     0.000,     0.000,   0
  1201,'1 ',   1,   1,   3,    54.615,     0.607,     0.000,     0.000,     0.000,     0.000,   1,    1,  0,     0.000,     0.000,   0
  1202,'1 ',   1,   1,   3,   287.558,   -87.311,     0.000,     0.000,     0.000,     0.000,   1,    1,  0,     0.000,     0.000,   0
  1301,'1 ',   1,   1,   3,   918.023,  -114.595,     0.000,     0.000,     0.000,     0.000,   1,    1,  0,     0.000,     0.000,   0
  1302,'1 ',   1,   1,   9,     6.061,    -0.774,     0.000,     0.000,     0.000,     0.000,   1,    1,  0,     0.000,     0.000,   0
  1303,'1 ',   1,   1,   9,  2200.482,  -285.616,     0.000,     0.000,     0.000,     0.000,   1,    1,  0,     0.000,     0.000,   0
  1401,'1 ',   1,   1,   3,  2239.644,  -504.791,     0.000,     0.000,     0.000,     0.000,   1,    1,  0,     0.000,     0.000,   0
  1402,'1 ',   1,   1,   3,  1799.723,   190.300,     0.000,     0.000,     0.000,     0.000,   1,    1,  0,     0.000,     0.000,   0
  2000,'1 ',   1,   4,   7,   901.000,  -117.531,     0.000,     0.000,     0.000,     0.000,   1,    1,  0,     0.000,     0.000,   0
  2100,'1 ',   1,   2,   2,   213.526,   -40.233,     0.000,     0.000,     0.000,     0.000,   1,    1,  0,     0.000,     0.000,   0
  2202,'1 ',   1,   2,   2,   796.658,  -140.645,     0.000,     0.000,     0.000,     0.000,   1,    1,  0,     0.000,     0.000,   0
  2203,'1 ',   1,   2,   2,   862.066,  -139.707,     0.000,     0.000,     0.000,     0.000,   1,    1,  0,     0.000,     0.000,   0
  2400,'1 ',   1,   2,   2,   465.445,   -41.346,     0.000,     0.000,     0.000,     0.000,   1,    1,  0,     0.000,     0.000,   0
  2401,'1 ',   1,   2,   2,   474.829,   -53.940,     0.000,     0.000,     0.000,     0.000,   1,    1,  0,     0.000,     0.000,   0
  2402,'1 ',   1,   2,   2,   592.587,   -43.692,     0.000,     0.000,     0.000,     0.000,   1,    1,  0,     0.000,     0.000,   0
  2403,'1 ',   1,   2,   2,   580.491,   -20.855,     0.000,     0.000,     0.000,     0.000,   1,    1,  0,     0.000,     0.000,   0
  2405,'1 ',   1,   2,   2,   460.878,   -12.662,     0.000,     0.000,     0.000,     0.000,   1,    1,  0,     0.000,     0.000,   0
  2406,'1 ',   1,   2,   2,   413.735,    22.711,     0.000,     0.000,     0.000,     0.000,   1,    1,  0,     0.000,     0.000,   0
  2407,'1 ',   1,   2,   2,  1010.726,    22.007,     0.000,     0.000,     0.000,     0.000,   1,    1,  0,     0.000,     0.000,   0
  2408,'1 ',   1,   2,   2,   975.917,    40.293,     0.000,     0.000,     0.000,     0.000,   1,    1,  0,     0.000,     0.000,   0
  2409,'1 ',   1,   2,   2,   887.033,    47.070,     0.000,     0.000,     0.000,     0.000,   1,    1,  0,     0.000,     0.000,   0
  2410,'1 ',   1,   2,   2,   885.854,   -32.512,     0.000,     0.000,     0.000,     0.000,   1,    1,  0,     0.000,     0.000,   0
  2411,'1 ',   1,   2,   2,   602.177,   -41.220,     0.000,     0.000,     0.000,     0.000,   1,    1,  0,     0.000,     0.000,   0
  2502,'1 ',   1,   2,   2,  1097.590,    41.692,     0.000,     0.000,     0.000,     0.000,   1,    1,  0,     0.000,     0.000,   0
  2503,'1 ',   1,   2,   2,   865.581,   -93.872,     0.000,     0.000,     0.000,     0.000,   1,    1,  0,     0.000,     0.000,   0
  2600,'1 ',   1,   2,   2,  -874.005,     0.000,     0.000,     0.000,     0.000,     0.000,   1,    1,  0,     0.000,     0.000,   0
  2602,'1 ',   1,   2,   2,    67.706,    -8.655,     0.000,     0.000,     0.000,     0.000,   1,    1,  0,     0.000,     0.000,   0
  2604,'1 ',   1,   2,   2,   984.244,     0.000,     0.000,     0.000,     0.000,     0.000,   1,    1,  0,     0.000,     0.000,   0
  2608,'1 ',   1,   2,   2,    68.092,    -8.754,     0.000,     0.000,     0.000,     0.000,   1,    1,  0,     0.000,     0.000,   0
  2609,'1 ',   1,   2,   2,    93.432,   -18.712,     0.000,     0.000,     0.000,     0.000,   1,    1,  0,     0.000,     0.000,   0
  2610,'1 ',   1,   2,   2,    68.837,    -8.947,     0.000,     0.000,     0.000,     0.000,   1,    1,  0,     0.000,     0.000,   0
  2611,'1 ',   1,   2,   2,    68.092,    -8.754,     0.000,     0.000,     0.000,     0.000,   1,    1,  0,     0.000,     0.000,   0
  2612,'1 ',   1,   2,   2,    82.508,   -16.818,     0.000,     0.000,     0.000,     0.000,   1,    1,  0,     0.000,     0.000,   0
  2613,'1 ',   1,   2,   2,   222.557,   -45.492,     0.000,     0.000,     0.000,     0.000,   1,    1,  0,     0.000,     0.000,   0
  2614,'1 ',   1,   2,   2,    95.259,   -19.304,     0.000,     0.000,     0.000,     0.000,   1,    1,  0,     0.000,     0.000,   0
  2615,'1 ',   1,   2,   2,   555.884,   -90.511,     0.000,     0.000,     0.000,     0.000,   1,    1,  0,     0.000,     0.000,   0
  2616,'1 ',   1,   2,   2,    81.210,   -16.730,     0.000,     0.000,     0.000,     0.000,   1,    1,  0,     0.000,     0.000,   0
  2617,'1 ',   1,   2,   2,    83.904,   -17.392,     0.000,     0.000,     0.000,     0.000,   1,    1,  0,     0.000,     0.000,   0
  2618,'1 ',   1,   2,   2,   606.975,     4.194,     0.000,     0.000,     0.000,     0.000,   1,    1,  0,     0.000,     0.000,   0
  2619,'1 ',   1,   2,   2, -1354.510,     0.000,     0.000,     0.000,     0.000,     0.000,   1,    1,  0,     0.000,     0.000,   0
  2620,'1 ',   1,   2,   2,   140.590,   -11.954,     0.000,     0.000,     0.000,     0.000,   1,    1,  0,     0.000,     0.000,   0
  2621,'1 ',   1,   2,   2,   161.984,    42.645,     0.000,     0.000,     0.000,     0.000,   1,    1,  0,     0.000,     0.000,   0
  3101,'1 ',   1,   2,   2,   209.575,   -33.115,     0.000,     0.000,     0.000,     0.000,   1,    1,  0,     0.000,     0.000,   0
  3102,'1 ',   1,   2,   2,    97.392,   -15.459,     0.000,     0.000,     0.000,     0.000,   1,    1,  0,     0.000,     0.000,   0
  3103,'1 ',   1,   2,   2,   265.083,   -38.040,     0.000,     0.000,     0.000,     0.000,   1,    1,  0,     0.000,     0.000,   0
  3104,'1 ',   1,   2,   2,   189.480,   -24.931,     0.000,     0.000,     0.000,     0.000,   1,    1,  0,     0.000,     0.000,   0
  3105,'1 ',   1,   2,   2,   143.940,   -29.528,     0.000,     0.000,     0.000,     0.000,   1,    1,  0,     0.000,     0.000,   0
  3201,'1 ',   1,   2,   2,   290.696,   -61.644,     0.000,     0.000,     0.000,     0.000,   1,    1,  0,     0.000,     0.000,   0
  3202,'1 ',   1,   2,   2,   368.577,   -52.624,     0.000,     0.000,     0.000,     0.000,   1,    1,  0,     0.000,     0.000,   0
  3203,'1 ',   1,   2,   2,   412.895,   -99.773,     0.000,     0.000,     0.000,     0.000,   1,    1,  0,     0.000,     0.000,   0
  3204,'1 ',   1,   2,   2,   415.269,   -58.597,     0.000,     0.000,     0.000,     0.000,   1,    1,  0,     0.000,     0.000,   0
  3205,'1 ',   1,   2,   2,   342.975,   -48.928,     0.000,     0.000,     0.000,     0.000,   1,    1,  0,     0.000,     0.000,   0
  3302,'1 ',   1,   2,   2,   220.458,   -55.753,     0.000,     0.000,     0.000,     0.000,   1,    1,  0,     0.000,     0.000,   0
  3303,'1 ',   1,   2,   2,   392.219,   -94.519,     0.000,     0.000,     0.000,     0.000,   1,    1,  0,     0.000,     0.000,   0
  3304,'1 ',   1,   2,   2,   338.499,   -78.715,     0.000,     0.000,     0.000,     0.000,   1,    1,  0,     0.000,     0.000,   0
  3305,'1 ',   1,   2,   2,   271.543,   -38.874,     0.000,     0.000,     0.000,     0.000,   1,    1,  0,     0.000,     0.000,   0
  3401,'1 ',   1,   2,   2,   244.681,   -62.160,     0.000,     0.000,     0.000,     0.000,   1,    1,  0,     0.000,     0.000,   0
  3403,'1 ',   1,   2,   2,   217.145,   -30.967,     0.000,     0.000,     0.000,     0.000,   1,    1,  0,     0.000,     0.000,   0
  3404,'1 ',   1,   2,   2,   187.217,   -26.892,     0.000,     0.000,     0.000,     0.000,   1,    1,  0,     0.000,     0.000,   0
  3405,'1 ',   1,   2,   2,   197.811,   -29.402,     0.000,     0.000,     0.000,     0.000,   1,    1,  0,     0.000,     0.000,   0
  3501,'1 ',   1,   2,   2,   334.400,   -47.625,     0.000,     0.000,     0.000,     0.000,   1,    1,  0,     0.000,     0.000,   0
  3601,'1 ',   1,   2,   2,    80.394,   -11.213,     0.000,     0.000,     0.000,     0.000,   1,    1,  0,     0.000,     0.000,   0
  3701,'1 ',   1,   1,   9,   167.900,    -8.392,     0.000,     0.000,     0.000,     0.000,   1,    1,  0,     0.000,     0.000,   0
  3801,'1 ',   1,   2,   2,   134.268,   -31.735,     0.000,     0.000,     0.000,     0.000,   1,    1,  0,     0.000,     0.000,   0
  3804,'1 ',   1,   2,   2,   165.173,   -40.968,     0.000,     0.000,     0.000,     0.000,   1,    1,  0,     0.000,     0.000,   0
  3805,'1 ',   1,   2,   2,   355.391,  -112.149,     0.000,     0.000,     0.000,     0.000,   1,    1,  0,     0.000,     0.000,   0
  3806,'1 ',   1,   2,   2,   209.320,   -29.343,     0.000,     0.000,     0.000,     0.000,   1,    1,  0,     0.000,     0.000,   0
  3902,'1 ',   1,   2,   2,    72.037,   -18.009,     0.000,     0.000,     0.000,     0.000,   1,    1,  0,     0.000,     0.000,   0
  3903,'1 ',   1,   2,   2,    99.793,   -14.078,     0.000,     0.000,     0.000,     0.000,   1,    1,  0,     0.000,     0.000,   0
  3907,'1 ',   1,   2,   2,   225.163,   -31.905,     0.000,     0.000,     0.000,     0.000,   1,    1,  0,     0.000,     0.000,   0
  3908,'1 ',   1,   2,   2,    97.765,   -12.508,     0.000,     0.000,     0.000,     0.000,   1,    1,  0,     0.000,     0.000,   0
  3909,'1 ',   1,   2,   2,    83.387,   -20.103,     0.000,     0.000,     0.000,     0.000,   1,    1,  0,     0.000,     0.000,   0
  3910,'1 ',   1,   2,   2,   119.512,   -17.863,     0.000,     0.000,     0.000,     0.000,   1,    1,  0,     0.000,     0.000,   0
  3911,'1 ',   1,   2,   2,   106.919,   -21.046,     0.000,     0.000,     0.000,     0.000,   1,    1,  0,     0.000,     0.000,   0
  3912,'1 ',   1,   2,   2,    82.096,     0.298,     0.000,     0.000,     0.000,     0.000,   1,    1,  0,     0.000,     0.000,   0
  3913,'1 ',   1,   2,   2,   157.477,   -21.064,     0.000,     0.000,     0.000,     0.000,   1,    1,  0,     0.000,     0.000,   0
  3914,'1 ',   1,   2,   2,   108.425,   -25.293,     0.000,     0.000,     0.000,     0.000,   1,    1,  0,     0.000,     0.000,   0
  3915,'1 ',   1,   2,   2,   120.774,   -25.550,     0.000,     0.000,     0.000,     0.000,   1,    1,  0,     0.000,     0.000,   0
  3916,'1 ',   1,   2,   2,    73.121,     0.000,     0.000,     0.000,     0.000,     0.000,   1,    1,  0,     0.000,     0.000,   0
  3917,'1 ',   1,   2,   2,   112.041,   -20.674,     0.000,     0.000,     0.000,     0.000,   1,    1,  0,     0.000,     0.000,   0
  3918,'1 ',   1,   2,   2,   151.482,   -36.076,     0.000,     0.000,     0.000,     0.000,   1,    1,  0,     0.000,     0.000,   0
  3919,'1 ',   1,   2,   2,    89.813,   -12.125,     0.000,     0.000,     0.000,     0.000,   1,    1,  0,     0.000,     0.000,   0
  3920,'1 ',   1,   2,   2,    83.094,   -11.668,     0.000,     0.000,     0.000,     0.000,   1,    1,  0,     0.000,     0.000,   0
  3921,'1 ',   1,   2,   2,    66.400,   -14.321,     0.000,     0.000,     0.000,     0.000,   1,    1,  0,     0.000,     0.000,   0
  3922,'1 ',   1,   2,   2,   121.279,   -15.523,     0.000,     0.000,     0.000,     0.000,   1,    1,  0,     0.000,     0.000,   0
  3923,'1 ',   1,   2,   2,   184.916,   -30.563,     0.000,     0.000,     0.000,     0.000,   1,    1,  0,     0.000,     0.000,   0
  3924,'1 ',   1,   2,   2,   157.029,   -22.343,     0.000,     0.000,     0.000,     0.000,   1,    1,  0,     0.000,     0.000,   0
  3926,'1 ',   1,   2,   2,   127.766,    -8.085,     0.000,     0.000,     0.000,     0.000,   1,    1,  0,     0.000,     0.000,   0
  4002,'1 ',   1,   3,  11,   107.097,   -12.792,     0.000,     0.000,     0.000,     0.000,   1,    1,  0,     0.000,     0.000,   0
  4004,'1 ',   1,   3,  11,   172.029,   -20.603,     0.000,     0.000,     0.000,     0.000,   1,    1,  0,     0.000,     0.000,   0
  4005,'1 ',   1,   3,  11,   308.145,   -93.550,     0.000,     0.000,     0.000,     0.000,   1,    1,  0,     0.000,     0.000,   0
  4008,'1 ',   1,   3,  11,   183.762,   -22.288,     0.000,     0.000,     0.000,     0.000,   1,    1,  0,     0.000,     0.000,   0
  4009,'1 ',   1,   3,  11,  1417.605,  -256.367,     0.000,     0.000,     0.000,     0.000,   1,    1,  0,     0.000,     0.000,   0
  4010,'1 ',   1,   3,  11,  1435.583,     0.000,     0.000,     0.000,     0.000,     0.000,   1,    1,  0,     0.000,     0.000,   0
  4101,'1 ',   1,   3,  13,   611.449,   -70.703,     0.000,     0.000,     0.000,     0.000,   1,    1,  0,     0.000,     0.000,   0
  4102,'1 ',   1,   3,  13,   303.984,   -39.622,     0.000,     0.000,     0.000,     0.000,   1,    1,  0,     0.000,     0.000,   0
  4103,'1 ',   1,   3,  13,     7.490,    -0.903,     0.000,     0.000,     0.000,     0.000,   1,    1,  0,     0.000,     0.000,   0
  4104,'1 ',   1,   3,  13,  1680.905,  -210.353,     0.000,     0.000,     0.000,     0.000,   1,    1,  0,     0.000,     0.000,   0
  4201,'1 ',   1,   3,  13,  3566.473,  -254.748,     0.000,     0.000,     0.000,     0.000,   1,    1,  0,     0.000,     0.000,   0
  4202,'1 ',   1,   3,  13,  2980.748,  -366.831,     0.000,     0.000,     0.000,     0.000,   1,    1,  0,     0.000,     0.000,   0
  4203,'1 ',   1,   3,  13,  2986.434,  -383.253,     0.000,     0.000,     0.000,     0.000,   1,    1,  0,     0.000,     0.000,   0
  4204,'1 ',   1,   3,  13,   658.246,   -80.373,     0.000,     0.000,     0.000,     0.000,   1,    1,  0,     0.000,     0.000,   0
  5001,'1 ',   1,   3,   4,  5085.333, -1100.721,     0.000,     0.000,     0.000,     0.000,   1,    1,  0,     0.000,     0.000,   0
  5002,'1 ',   1,   3,   1,  6347.681,  -784.746,     0.000,     0.000,     0.000,     0.000,   1,    1,  0,     0.000,     0.000,   0
  5003,'1 ',   1,   3,   1,   415.422,   -51.904,     0.000,     0.000,     0.000,     0.000,   1,    1,  0,     0.000,     0.000,   0
  6102,'1 ',   1,   3,   6,   382.613,   121.788,     0.000,     0.000,     0.000,     0.000,   1,    1,  0,     0.000,     0.000,   0
  6103,'1 ',   1,   3,   6,   144.613,   -18.599,     0.000,     0.000,     0.000,     0.000,   1,    1,  0,     0.000,     0.000,   0
  6104,'1 ',   1,   3,   6,   630.030,   -81.631,     0.000,     0.000,     0.000,     0.000,   1,    1,  0,     0.000,     0.000,   0
  6201,'1 ',   1,   3,   8,    70.689,    -8.702,     0.000,     0.000,     0.000,     0.000,   1,    1,  0,     0.000,     0.000,   0
  6202,'1 ',   1,   3,   8,    29.605,    -4.137,     0.000,     0.000,     0.000,     0.000,   1,    1,  0,     0.000,     0.000,   0
  6203,'1 ',   1,   3,   8,   221.799,   -52.288,     0.000,     0.000,     0.000,     0.000,   1,    1,  0,     0.000,     0.000,   0
  6204,'1 ',   1,   3,   8,   243.026,   -51.906,     0.000,     0.000,     0.000,     0.000,   1,    1,  0,     0.000,     0.000,   0
  6205,'1 ',   1,   3,   8,   169.644,   -28.512,     0.000,     0.000,     0.000,     0.000,   1,    1,  0,     0.000,     0.000,   0
  6301,'1 ',   1,   3,  14,   185.177,   -23.795,     0.000,     0.000,     0.000,     0.000,   1,    1,  0,     0.000,     0.000,   0
  6302,'1 ',   1,   3,  14,   214.217,   -27.790,     0.000,     0.000,     0.000,     0.000,   1,    1,  0,     0.000,     0.000,   0
  6303,'1 ',   1,   3,  14,   263.888,   -33.425,     0.000,     0.000,     0.000,     0.000,   1,    1,  0,     0.000,     0.000,   0
  6305,'1 ',   1,   3,  14,    20.687,    -6.400,     0.000,     0.000,     0.000,     0.000,   1,    1,  0,     0.000,     0.000,   0
  6401,'1 ',   1,   1,   9,   791.095,  -100.478,     0.000,     0.000,     0.000,     0.000,   1,    1,  0,     0.000,     0.000,   0
  6402,'1 ',   1,   1,   9,   131.585,   -17.069,     0.000,     0.000,     0.000,     0.000,   1,    1,  0,     0.000,     0.000,   0
  6403,'1 ',   1,   1,   9,     0.962,    -0.107,     0.000,     0.000,     0.000,     0.000,   1,    1,  0,     0.000,     0.000,   0
  6404,'1 ',   1,   1,   9,    13.359,    -1.651,     0.000,     0.000,     0.000,     0.000,   1,    1,  0,     0.000,     0.000,   0
  6501,'1 ',   1,   3,  12,    70.275,   -22.750,     0.000,     0.000,     0.000,     0.000,   1,    1,  0,     0.000,     0.000,   0
  6502,'1 ',   1,   3,  12,   560.401,   -98.987,     0.000,     0.000,     0.000,     0.000,   1,    1,  0,     0.000,     0.000,   0
  6503,'1 ',   1,   3,  12,   150.802,   -46.414,     0.000,     0.000,     0.000,     0.000,   1,    1,  0,     0.000,     0.000,   0
  6504,'1 ',   1,   3,  12,   106.932,   -13.794,     0.000,     0.000,     0.000,     0.000,   1,    1,  0,     0.000,     0.000,   0
  6505,'1 ',   1,   3,  12,     2.386,    -0.756,     0.000,     0.000,     0.000,     0.000,   1,    1,  0,     0.000,     0.000,   0
  6507,'1 ',   1,   3,  12,   192.161,    21.280,     0.000,     0.000,     0.000,     0.000,   1,    1,  0,     0.000,     0.000,   0
  6508,'1 ',   1,   3,  12,    46.960,   -15.059,     0.000,     0.000,     0.000,     0.000,   1,    1,  0,     0.000,     0.000,   0
  6509,'1 ',   1,   3,  12,     3.093,    -1.002,     0.000,     0.000,     0.000,     0.000,   1,    1,  0,     0.000,     0.000,   0
  6510,'1 ',   1,   3,  12,   717.889,    40.734,     0.000,     0.000,     0.000,     0.000,   1,    1,  0,     0.000,     0.000,   0
  7001,'1 ',   1,   3,   5,  2498.751,  -270.260,     0.000,     0.000,     0.000,     0.000,   1,    1,  0,     0.000,     0.000,   0
  7002,'1 ',   1,   3,   5,   916.358,    48.790,     0.000,     0.000,     0.000,     0.000,   1,    1,  0,     0.000,     0.000,   0
  8003,'1 ',   1,   2,   2,   144.255,   -17.505,     0.000,     0.000,     0.000,     0.000,   1,    1,  0,     0.000,     0.000,   0
  8004,'1 ',   1,   2,   2,   900.001,  -117.400,     0.000,     0.000,     0.000,     0.000,   1,    1,  0,     0.000,     0.000,   0
  8005,'1 ',   1,   2,   2,   320.290,   -42.632,     0.000,     0.000,     0.000,     0.000,   1,    1,  0,     0.000,     0.000,   0
0 / END OF LOAD DATA, BEGIN FIXED SHUNT DATA
@!   I,'ID',STATUS,  GL,        BL
0 / END OF FIXED SHUNT DATA, BEGIN GENERATOR DATA
@!   I,'ID',      PG,        QG,        QT,        QB,     VS,    IREG,     MBASE,     ZR,         ZX,         RT,         XT,     GTAP,STAT, RMPCT,      PT,        PB,    O1,    F1,  O2,    F2,  O3,    F3,  O4,    F4,WMOD, WPF,NREG
  1003,'AD',     0.000,     0.000, 99999.000,-99999.000,1.00000,  1003,   100.000, 0.00000E+0, 1.00000E+0, 0.00000E+0, 0.00000E+0,1.00000,1,  100.0, 99999.000,-99999.000,   1,1.0000
  1004,'AD',     0.000,     0.000, 99999.000,-99999.000,1.00000,  1004,   100.000, 0.00000E+0, 1.00000E+0, 0.00000E+0, 0.00000E+0,1.00000,1,  100.0, 99999.000,-99999.000,   1,1.0000
  1032,'AD',     0.000,     0.000, 99999.000,-99999.000,1.01400,  1002,   100.000, 0.00000E+0, 1.00000E+0, 0.00000E+0, 0.00000E+0,1.00000,1,  100.0, 99999.000,-99999.000,   1,1.0000
  1032,'C ',   873.000,   200.000,   200.000,  -200.000,1.01400,  1002,   895.617, 0.00000E+0, 2.00000E-1, 0.00000E+0, 0.00000E+0,1.00000,1,  100.0,   873.000,     0.000,   1,1.0000
  1032,'G ',     0.000,   344.074,   357.000,  -357.000,1.01400,  1002,  1109.031, 0.00000E+0, 2.00000E-1, 0.00000E+0, 0.00000E+0,1.00000,0,  100.0,  1050.000,     0.000,   1,1.0000
  1032,'S ',     0.000,   209.017,   255.200,  -255.200,1.01400,  1002,   687.147, 0.00000E+0, 2.00000E-1, 0.00000E+0, 0.00000E+0,1.00000,0,  100.0,   638.000,     0.000,   1,1.0000,   0,   1.0,   0,   1.0,   0,   1.0, 1, 1.0000
  1034,'C ',  1944.000,   500.000,   500.000,  -500.000,1.03000,  1004,  2007.271, 0.00000E+0, 2.00000E-1, 0.00000E+0, 0.00000E+0,1.00000,1,  100.0,  1944.000,     0.000,   1,1.0000
  1034,'G ',     0.000,   168.193,   918.000,  -918.000,1.03000,  1004,  2851.793, 0.00000E+0, 2.00000E-1, 0.00000E+0, 0.00000E+0,1.00000,0,  100.0,  2700.000,     0.000,   1,1.0000
  1034,'W ',  1675.120,   672.800,   672.800,  -672.800,1.03000,  1004,  1811.569, 0.00000E+0, 2.00000E-1, 0.00000E+0, 0.00000E+0,1.00000,1,  100.0,  1682.000,     0.000,   1,1.0000,   0,   1.0,   0,   1.0,   0,   1.0, 1, 1.0000
  1101,'AD',     0.000,     0.000, 99999.000,-99999.000,1.00000,  1101,   100.000, 0.00000E+0, 1.00000E+0, 0.00000E+0, 0.00000E+0,1.00000,1,  100.0, 99999.000,-99999.000,   1,1.0000
  1102,'AD',     0.000,     0.000, 99999.000,-99999.000,1.00000,  1102,   100.000, 0.00000E+0, 1.00000E+0, 0.00000E+0, 0.00000E+0,1.00000,1,  100.0, 99999.000,-99999.000,   1,1.0000
  1131,'C ',  1268.000,   308.000,   308.000,  -308.000,1.01000,  1101,  1304.871, 0.00000E+0, 2.00000E-1, 0.00000E+0, 0.00000E+0,1.00000,1,  100.0,  1268.000,     0.000,   1,1.0000
  1131,'G ',     0.000,   121.365,  1916.000, -1916.000,1.01000,  1101,  5292.958, 0.00000E+0, 2.00000E-1, 0.00000E+0, 0.00000E+0,1.00000,0,  100.0,  4934.000,     0.000,   1,1.0000
  1201,'AD',     0.000,     0.000, 99999.000,-99999.000,1.00000,  1201,   100.000, 0.00000E+0, 1.00000E+0, 0.00000E+0, 0.00000E+0,1.00000,1,  100.0, 99999.000,-99999.000,   1,1.0000
  1202,'AD',     0.000,     0.000, 99999.000,-99999.000,1.00000,  1202,   100.000, 0.00000E+0, 1.00000E+0, 0.00000E+0, 0.00000E+0,1.00000,1,  100.0, 99999.000,-99999.000,   1,1.0000
  1232,'C ',  1567.439, 12899.235,  1208.000, -1208.000,1.08000,  1202,  5121.503, 0.00000E+0, 2.00000E-1, 0.00000E+0, 0.00000E+0,1.00000,1,  100.0,  4977.000,     0.000,   1,1.0000
  1232,'H ',   310.178,  2552.607,   479.600,  -479.600,1.08000,  1202,  1291.363, 0.00000E+0, 2.00000E-1, 0.00000E+0, 0.00000E+0,1.00000,1,  100.0,  1199.000,     0.000,   1,1.0000
  1301,'AD',     0.000,     0.000, 99999.000,-99999.000,1.00000,  1301,   100.000, 0.00000E+0, 1.00000E+0, 0.00000E+0, 0.00000E+0,1.00000,1,  100.0, 99999.000,-99999.000,   1,1.0000
  1302,'AD',     0.000,     0.000, 99999.000,-99999.000,1.00000,  1302,   100.000, 0.00000E+0, 1.00000E+0, 0.00000E+0, 0.00000E+0,1.00000,1,  100.0, 99999.000,-99999.000,   1,1.0000
  1331,'G ',     0.000,    37.119,   841.000,  -841.000,1.04500,  1301,  2324.472, 0.00000E+0, 2.00000E-1, 0.00000E+0, 0.00000E+0,1.00000,0,  100.0,  2167.000,     0.000,   1,1.0000
  1331,'H ',  1255.869,   931.200,   931.200,  -931.200,1.04500,  1301,  2507.333, 0.00000E+0, 2.00000E-1, 0.00000E+0, 0.00000E+0,1.00000,1,  100.0,  2328.000,     0.000,   1,1.0000
  1333,'C ',   418.000,  -149.835,   167.200,  -167.200,1.00500,  1303,   450.200, 0.00000E+0, 2.00000E-1, 0.00000E+0, 0.00000E+0,1.00000,1,  100.0,   418.000,     0.000,   1,1.0000
  1333,'G ',  1576.731,  -565.191,  2746.000, -2746.000,1.00500,  1303,  7529.584, 0.00000E+0, 2.00000E-1, 0.00000E+0, 0.00000E+0,1.00000,1,  100.0,  7011.000,     0.000,   1,1.0000
  1333,'S ',     0.000,   205.553,   969.200,  -969.200,1.00500,  1303,  2609.651, 0.00000E+0, 2.00000E-1, 0.00000E+0, 0.00000E+0,1.00000,0,  100.0,  2423.000,     0.000,   1,1.0000,   0,   1.0,   0,   1.0,   0,   1.0, 1, 1.0000
  1401,'AD',     0.000,     0.000, 99999.000,-99999.000,1.00000,  1401,   100.000, 0.00000E+0, 1.00000E+0, 0.00000E+0, 0.00000E+0,1.00000,1,  100.0, 99999.000,-99999.000,   1,1.0000
  1402,'AD',     0.000,     0.000, 99999.000,-99999.000,1.00000,  1402,   100.000, 0.00000E+0, 1.00000E+0, 0.00000E+0, 0.00000E+0,1.00000,1,  100.0, 99999.000,-99999.000,   1,1.0000
  1403,'AD',     0.000,     0.000, 99999.000,-99999.000,1.00000,  1403,   100.000, 0.00000E+0, 1.00000E+0, 0.00000E+0, 0.00000E+0,1.00000,1,  100.0, 99999.000,-99999.000,   1,1.0000
  1431,'G ',     0.000,   797.425,  3559.000, -3559.000,1.03500,  1401,  9836.432, 0.00000E+0, 2.00000E-1, 0.00000E+0, 0.00000E+0,1.00000,0,  100.0,  9170.000,     0.000,   1,1.0000
  1431,'N ',  3066.000, -1684.000,  1684.000, -1684.000,1.03500,  1401,  4534.309, 0.00000E+0, 2.00000E-1, 0.00000E+0, 0.00000E+0,1.00000,1,  100.0,  4210.000,     0.000,   1,1.0000
  1431,'S ',     0.000,   210.356,   967.600,  -967.600,1.03500,  1401,  2605.343, 0.00000E+0, 2.00000E-1, 0.00000E+0, 0.00000E+0,1.00000,0,  100.0,  2419.000,     0.000,   1,1.0000,   0,   1.0,   0,   1.0,   0,   1.0, 1, 1.0000
  2000,'AD',     0.000,     0.000, 99999.000,-99999.000,1.00000,  2000,   100.000, 0.00000E+0, 1.00000E+0, 0.00000E+0, 0.00000E+0,1.00000,1,  100.0, 99999.000,-99999.000,   1,1.0000
  2030,'E ',   520.000,  -279.600,   279.600,  -279.600,1.00000,  2000,   752.846, 0.00000E+0, 2.00000E-1, 0.00000E+0, 0.00000E+0,1.00000,1,  100.0,   699.000,     0.000,   1,1.0000
  2030,'G ',   195.893,  -678.970,   856.000,  -856.000,1.00000,  2000,  2304.851, 0.00000E+0, 2.00000E-1, 0.00000E+0, 0.00000E+0,1.00000,1,  100.0,  2140.000,     0.000,   1,1.0000
  2100,'AD',     0.000,     0.000, 99999.000,-99999.000,1.00000,  2100,   100.000, 0.00000E+0, 1.00000E+0, 0.00000E+0, 0.00000E+0,1.00000,1,  100.0, 99999.000,-99999.000,   1,1.0000
  2130,'E ',   407.000,   254.000,   254.000,  -254.000,1.03500,  2100,   868.952, 0.00000E+0, 2.00000E-1, 0.00000E+0, 0.00000E+0,1.00000,1,  100.0,   831.000,     0.000,   1,1.0000
  2130,'G ',     0.000,    54.601,   200.000,  -200.000,1.03500,  2100,   619.190, 0.00000E+0, 2.00000E-1, 0.00000E+0, 0.00000E+0,1.00000,0,  100.0,   586.000,     0.000,   1,1.0000
  2130,'H ',    91.034,   154.196,   158.400,  -158.400,1.03500,  2100,   426.505, 0.00000E+0, 2.00000E-1, 0.00000E+0, 0.00000E+0,1.00000,1,  100.0,   396.000,     0.000,   1,1.0000
  2130,'S ',     0.000,    10.677,    46.000,   -46.000,1.03500,  2100,   123.859, 0.00000E+0, 2.00000E-1, 0.00000E+0, 0.00000E+0,1.00000,0,  100.0,   115.000,     0.000,   1,1.0000,   0,   1.0,   0,   1.0,   0,   1.0, 1, 1.0000
  2201,'AD',     0.000,     0.000, 99999.000,-99999.000,1.00000,  2201,   100.000, 0.00000E+0, 1.00000E+0, 0.00000E+0, 0.00000E+0,1.00000,1,  100.0, 99999.000,-99999.000,   1,1.0000
  2203,'AD',     0.000,     0.000, 99999.000,-99999.000,1.00000,  2203,   100.000, 0.00000E+0, 1.00000E+0, 0.00000E+0, 0.00000E+0,1.00000,1,  100.0, 99999.000,-99999.000,   1,1.0000
  2233,'DG',     0.000,   136.789,   304.000,  -304.000,1.00500,  2203,  1078.722, 0.00000E+0, 2.00000E-1, 0.00000E+0, 0.00000E+0,1.00000,0,  100.0,  1035.000,     0.000,   1,1.0000
  2233,'EG',     0.000,   242.861,   611.000,  -611.000,1.00500,  2203,  1935.947, 0.00000E+0, 2.00000E-1, 0.00000E+0, 0.00000E+0,1.00000,0,  100.0,  1837.000,     0.000,   1,1.0000
  2233,'TG',     0.000,    96.952,   206.000,  -206.000,1.00500,  2203,   761.397, 0.00000E+0, 2.00000E-1, 0.00000E+0, 0.00000E+0,1.00000,0,  100.0,   733.000,     0.000,   1,1.0000
  2301,'AD',     0.000,     0.000, 99999.000,-99999.000,1.00000,  2301,   100.000, 0.00000E+0, 1.00000E+0, 0.00000E+0, 0.00000E+0,1.00000,1,  100.0, 99999.000,-99999.000,   1,1.0000
  2332,'S ',     0.000,   128.939,   533.200,  -533.200,1.03500,  2302,  1435.685, 0.00000E+0, 2.00000E-1, 0.00000E+0, 0.00000E+0,1.00000,0,  100.0,  1333.000,     0.000,   1,1.0000,   0,   1.0,   0,   1.0,   0,   1.0, 1, 1.0000
  2400,'AD',     0.000,     0.000, 99999.000,-99999.000,1.00000,  2400,   100.000, 0.00000E+0, 1.00000E+0, 0.00000E+0, 0.00000E+0,1.00000,1,  100.0, 99999.000,-99999.000,   1,1.0000
  2401,'AD',     0.000,     0.000, 99999.000,-99999.000,1.00000,  2401,   100.000, 0.00000E+0, 1.00000E+0, 0.00000E+0, 0.00000E+0,1.00000,1,  100.0, 99999.000,-99999.000,   1,1.0000
  2402,'AD',     0.000,     0.000, 99999.000,-99999.000,1.00000,  2402,   100.000, 0.00000E+0, 1.00000E+0, 0.00000E+0, 0.00000E+0,1.00000,1,  100.0, 99999.000,-99999.000,   1,1.0000
  2403,'AD',     0.000,     0.000, 99999.000,-99999.000,1.00000,  2403,   100.000, 0.00000E+0, 1.00000E+0, 0.00000E+0, 0.00000E+0,1.00000,1,  100.0, 99999.000,-99999.000,   1,1.0000
  2404,'AD',     0.000,     0.000, 99999.000,-99999.000,1.00000,  2404,   100.000, 0.00000E+0, 1.00000E+0, 0.00000E+0, 0.00000E+0,1.00000,1,  100.0, 99999.000,-99999.000,   1,1.0000
  2405,'AD',     0.000,     0.000, 99999.000,-99999.000,1.00000,  2405,   100.000, 0.00000E+0, 1.00000E+0, 0.00000E+0, 0.00000E+0,1.00000,1,  100.0, 99999.000,-99999.000,   1,1.0000
  2406,'AD',     0.000,     0.000, 99999.000,-99999.000,1.00000,  2406,   100.000, 0.00000E+0, 1.00000E+0, 0.00000E+0, 0.00000E+0,1.00000,1,  100.0, 99999.000,-99999.000,   1,1.0000
  2407,'AD',     0.000,     0.000, 99999.000,-99999.000,1.00000,  2407,   100.000, 0.00000E+0, 1.00000E+0, 0.00000E+0, 0.00000E+0,1.00000,1,  100.0, 99999.000,-99999.000,   1,1.0000
  2408,'AD',     0.000,     0.000, 99999.000,-99999.000,1.00000,  2408,   100.000, 0.00000E+0, 1.00000E+0, 0.00000E+0, 0.00000E+0,1.00000,1,  100.0, 99999.000,-99999.000,   1,1.0000
  2410,'AD',     0.000,     0.000, 99999.000,-99999.000,1.00000,  2410,   100.000, 0.00000E+0, 1.00000E+0, 0.00000E+0, 0.00000E+0,1.00000,1,  100.0, 99999.000,-99999.000,   1,1.0000
  2431,'S ',     0.000,   367.573,   666.400,  -666.400,1.05000,  2431,  1794.337, 0.00000E+0, 2.00000E-1, 0.00000E+0, 0.00000E+0,1.00000,0,  100.0,  1666.000,     0.000,   1,1.0000,   0,   1.0,   0,   1.0,   0,   1.0, 1, 1.0000
  2434,'S ',     0.000,  -213.713,   500.000,  -500.000,1.02000,  2434,  1570.707, 0.00000E+0, 2.00000E-1, 0.00000E+0, 0.00000E+0,1.00000,0,  100.0,  1489.000,     0.000,   1,1.0000,   0,   1.0,   0,   1.0,   0,   1.0, 1, 1.0000
  2438,'EG',   747.893,   728.000,   728.000,  -728.000,1.00900,  2408,  2404.838, 0.00000E+0, 2.00000E-1, 0.00000E+0, 0.00000E+0,1.00000,1,  100.0,  2292.000,     0.000,   1,1.0000
  2438,'ND',     0.000,     0.000,     0.500,    -0.500,1.00900,  2408,     0.500, 0.00000E+0, 2.00000E-1, 0.00000E+0, 0.00000E+0,1.00000,0,  100.0,     0.000, -1006.000,   1,1.0000
  2438,'RG',     0.000,    70.054,  1902.000, -1902.000,1.00900,  2408,  5773.301, 0.00000E+0, 2.00000E-1, 0.00000E+0, 0.00000E+0,1.00000,0,  100.0,  5451.000,     0.000,   1,1.0000
  2438,'S ',     0.000,    14.702,   458.400,  -458.400,1.00900,  2408,  1234.280, 0.00000E+0, 2.00000E-1, 0.00000E+0, 0.00000E+0,1.00000,0,  100.0,  1146.000,     0.000,   1,1.0000,   0,   1.0,   0,   1.0,   0,   1.0, 1, 1.0000
  2438,'SG',     0.000,    52.775,  1644.000, -1644.000,1.00900,  2408,  4426.605, 0.00000E+0, 2.00000E-1, 0.00000E+0, 0.00000E+0,1.00000,0,  100.0,  4110.000,     0.000,   1,1.0000
  2438,'SH',   566.267,   584.000,   584.000,  -584.000,1.00900,  2408,  1572.468, 0.00000E+0, 2.00000E-1, 0.00000E+0, 0.00000E+0,1.00000,1,  100.0,  1460.000,     0.000,   1,1.0000
  2438,'SW',   255.802,   561.000,   561.000,  -561.000,1.00900,  2408,  3258.653, 0.00000E+0, 2.00000E-1, 0.00000E+0, 0.00000E+0,1.00000,1,  100.0,  3210.000,     0.000,   1,1.0000,   0,   1.0,   0,   1.0,   0,   1.0, 1, 1.0000
  2438,'WG',     0.000,    74.740,  1910.000, -1910.000,1.00900,  2408,  6122.547, 0.00000E+0, 2.00000E-1, 0.00000E+0, 0.00000E+0,1.00000,0,  100.0,  5817.000,     0.000,   1,1.0000
  2439,'S ',     0.000,  -206.012,   666.400,  -666.400,1.02000,  2409,  1794.337, 0.00000E+0, 2.00000E-1, 0.00000E+0, 0.00000E+0,1.00000,0,  100.0,  1666.000,     0.000,   1,1.0000,   0,   1.0,   0,   1.0,   0,   1.0, 1, 1.0000
  2501,'AD',     0.000,     0.000, 99999.000,-99999.000,1.00000,  2501,   100.000, 0.00000E+0, 1.00000E+0, 0.00000E+0, 0.00000E+0,1.00000,1,  100.0, 99999.000,-99999.000,   1,1.0000
  2503,'AD',     0.000,     0.000, 99999.000,-99999.000,1.00000,  2503,   100.000, 0.00000E+0, 1.00000E+0, 0.00000E+0, 0.00000E+0,1.00000,1,  100.0, 99999.000,-99999.000,   1,1.0000
  2533,'S ',     0.000,   224.930,   799.600,  -799.600,1.00900,  2503,  2152.989, 0.00000E+0, 2.00000E-1, 0.00000E+0, 0.00000E+0,1.00000,0,  100.0,  1999.000,     0.000,   1,1.0000,   0,   1.0,   0,   1.0,   0,   1.0, 1, 1.0000
  2600,'AD',     0.000,     0.000, 99999.000,-99999.000,1.00000,  2600,   100.000, 0.00000E+0, 1.00000E+0, 0.00000E+0, 0.00000E+0,1.00000,1,  100.0, 99999.000,-99999.000,   1,1.0000
  2601,'AD',     0.000,     0.000, 99999.000,-99999.000,1.00000,  2601,   100.000, 0.00000E+0, 1.00000E+0, 0.00000E+0, 0.00000E+0,1.00000,1,  100.0, 99999.000,-99999.000,   1,1.0000
  2602,'AD',     0.000,     0.000, 99999.000,-99999.000,1.00000,  2602,   100.000, 0.00000E+0, 1.00000E+0, 0.00000E+0, 0.00000E+0,1.00000,1,  100.0, 99999.000,-99999.000,   1,1.0000
  2603,'AD',     0.000,     0.000, 99999.000,-99999.000,1.00000,  2603,   100.000, 0.00000E+0, 1.00000E+0, 0.00000E+0, 0.00000E+0,1.00000,1,  100.0, 99999.000,-99999.000,   1,1.0000
  2604,'AD',     0.000,     0.000, 99999.000,-99999.000,1.00000,  2604,   100.000, 0.00000E+0, 1.00000E+0, 0.00000E+0, 0.00000E+0,1.00000,1,  100.0, 99999.000,-99999.000,   1,1.0000
  2608,'AD',     0.000,     0.000, 99999.000,-99999.000,1.00000,  2608,   100.000, 0.00000E+0, 1.00000E+0, 0.00000E+0, 0.00000E+0,1.00000,1,  100.0, 99999.000,-99999.000,   1,1.0000
  2609,'AD',     0.000,     0.000, 99999.000,-99999.000,1.00000,  2609,   100.000, 0.00000E+0, 1.00000E+0, 0.00000E+0, 0.00000E+0,1.00000,1,  100.0, 99999.000,-99999.000,   1,1.0000
  2610,'AD',     0.000,     0.000, 99999.000,-99999.000,1.00000,  2610,   100.000, 0.00000E+0, 1.00000E+0, 0.00000E+0, 0.00000E+0,1.00000,1,  100.0, 99999.000,-99999.000,   1,1.0000
  2611,'AD',     0.000,     0.000, 99999.000,-99999.000,1.00000,  2611,   100.000, 0.00000E+0, 1.00000E+0, 0.00000E+0, 0.00000E+0,1.00000,1,  100.0, 99999.000,-99999.000,   1,1.0000
  2613,'AD',     0.000,     0.000, 99999.000,-99999.000,1.00000,  2613,   100.000, 0.00000E+0, 1.00000E+0, 0.00000E+0, 0.00000E+0,1.00000,1,  100.0, 99999.000,-99999.000,   1,1.0000
  2630,'G ',     0.000,   203.269,  1346.000, -1346.000,1.00400,  2610,  4170.195, 0.00000E+0, 2.00000E-1, 0.00000E+0, 0.00000E+0,1.00000,0,  100.0,  3947.000,     0.000,   1,1.0000
  2631,'S ',     0.000,    72.187,   208.000,  -208.000,1.01500,  2611,   560.057, 0.00000E+0, 2.00000E-1, 0.00000E+0, 0.00000E+0,1.00000,0,  100.0,   520.000,     0.000,   1,1.0000,   0,   1.0,   0,   1.0,   0,   1.0, 1, 1.0000
  2634,'C ',   323.600,  -647.200,   647.200,  -647.200,1.03000,  2604,  1742.639, 0.00000E+0, 2.00000E-1, 0.00000E+0, 0.00000E+0,1.00000,1,  100.0,  1618.000,     0.000,   1,1.0000
  2637,'H ',    19.938,    34.800,    34.800,   -34.800,1.03000,  2612,    93.702, 0.00000E+0, 2.00000E-1, 0.00000E+0, 0.00000E+0,1.00000,1,  100.0,    87.000,     0.000,   1,1.0000
  2638,'H ',    93.271,  -100.000,   100.000,  -100.000,1.01500,  2608,   419.105, 0.00000E+0, 2.00000E-1, 0.00000E+0, 0.00000E+0,1.00000,1,  100.0,   407.000,     0.000,   1,1.0000
  2901,'AD',     0.000,     0.000, 99999.000,-99999.000,1.00000,  2901,   100.000, 0.00000E+0, 1.00000E+0, 0.00000E+0, 0.00000E+0,1.00000,1,  100.0, 99999.000,-99999.000,   1,1.0000
  2902,'AD',     0.000,     0.000, 99999.000,-99999.000,1.00000,  2902,   100.000, 0.00000E+0, 1.00000E+0, 0.00000E+0, 0.00000E+0,1.00000,1,  100.0, 99999.000,-99999.000,   1,1.0000
  3101,'AD',     0.000,     0.000, 99999.000,-99999.000,1.00000,  3101,   100.000, 0.00000E+0, 1.00000E+0, 0.00000E+0, 0.00000E+0,1.00000,1,  100.0, 99999.000,-99999.000,   1,1.0000
  3102,'AD',     0.000,     0.000, 99999.000,-99999.000,1.00000,  3102,   100.000, 0.00000E+0, 1.00000E+0, 0.00000E+0, 0.00000E+0,1.00000,1,  100.0, 99999.000,-99999.000,   1,1.0000
  3103,'AD',     0.000,     0.000, 99999.000,-99999.000,1.00000,  3103,   100.000, 0.00000E+0, 1.00000E+0, 0.00000E+0, 0.00000E+0,1.00000,1,  100.0, 99999.000,-99999.000,   1,1.0000
  3105,'AD',     0.000,     0.000, 99999.000,-99999.000,1.00000,  3105,   100.000, 0.00000E+0, 1.00000E+0, 0.00000E+0, 0.00000E+0,1.00000,1,  100.0, 99999.000,-99999.000,   1,1.0000
  3133,'NG',     0.000,    24.800,    24.800,   -24.800,1.00000,  3103,    66.776, 0.00000E+0, 2.00000E-1, 0.00000E+0, 0.00000E+0,1.00000,0,  100.0,    62.000,     0.000,   1,1.0000
  3133,'SC',     0.000,     0.000,   500.000,  -500.000,1.00000,  3103,   500.000, 0.00000E+0, 2.00000E-1, 0.00000E+0, 0.00000E+0,1.00000,0,  100.0,     0.100,     0.000,   1,1.0000
  3135,'MG',    90.088,   216.400,   216.400,  -216.400,1.00000,  3105,   582.675, 0.00000E+0, 2.00000E-1, 0.00000E+0, 0.00000E+0,1.00000,1,  100.0,   541.000,     0.000,   1,1.0000
  3135,'NG',     0.000,     6.381,    15.200,   -15.200,1.00000,  3105,    40.927, 0.00000E+0, 2.00000E-1, 0.00000E+0, 0.00000E+0,1.00000,0,  100.0,    38.000,     0.000,   1,1.0000
  3201,'AD',     0.000,     0.000, 99999.000,-99999.000,1.00000,  3201,   100.000, 0.00000E+0, 1.00000E+0, 0.00000E+0, 0.00000E+0,1.00000,1,  100.0, 99999.000,-99999.000,   1,1.0000
  3202,'AD',     0.000,     0.000, 99999.000,-99999.000,1.00000,  3202,   100.000, 0.00000E+0, 1.00000E+0, 0.00000E+0, 0.00000E+0,1.00000,1,  100.0, 99999.000,-99999.000,   1,1.0000
  3203,'AD',     0.000,     0.000, 99999.000,-99999.000,1.00000,  3203,   100.000, 0.00000E+0, 1.00000E+0, 0.00000E+0, 0.00000E+0,1.00000,1,  100.0, 99999.000,-99999.000,   1,1.0000
  3204,'AD',     0.000,     0.000, 99999.000,-99999.000,1.00000,  3204,   100.000, 0.00000E+0, 1.00000E+0, 0.00000E+0, 0.00000E+0,1.00000,1,  100.0, 99999.000,-99999.000,   1,1.0000
  3205,'AD',     0.000,     0.000, 99999.000,-99999.000,1.00000,  3205,   100.000, 0.00000E+0, 1.00000E+0, 0.00000E+0, 0.00000E+0,1.00000,1,  100.0, 99999.000,-99999.000,   1,1.0000
  3234,'DG',     0.000,    15.032,    70.800,   -70.800,1.01000,  3204,   190.635, 0.00000E+0, 2.00000E-1, 0.00000E+0, 0.00000E+0,1.00000,0,  100.0,   177.000,     0.000,   1,1.0000
  3234,'MG',     0.000,   326.797,  1244.000, -1244.000,1.01000,  3204,  4048.845, 0.00000E+0, 2.00000E-1, 0.00000E+0, 0.00000E+0,1.00000,0,  100.0,  3853.000,     0.000,   1,1.0000
  3234,'NG',     0.000,    87.878,   382.000,  -382.000,1.01000,  3204,  1105.121, 0.00000E+0, 2.00000E-1, 0.00000E+0, 0.00000E+0,1.00000,0,  100.0,  1037.000,     0.000,   1,1.0000
  3234,'NW',  1304.365,   150.000,   150.000,  -150.000,1.01000,  3204,  1746.453, 0.00000E+0, 2.00000E-1, 0.00000E+0, 0.00000E+0,1.00000,1,  100.0,  1740.000,     0.000,   1,1.0000,   0,   1.0,   0,   1.0,   0,   1.0, 1, 1.0000
...